/*--------------------------------*- C++ -*----------------------------------*\
  =========                 |
  \\      /  F ield         | OpenFOAM: The Open Source CFD Toolbox
   \\    /   O peration     | Website:  https://openfoam.org
    \\  /    A nd           | Version:  9
     \\/     M anipulation  |
\*---------------------------------------------------------------------------*/
FoamFile
{
    format      ascii;
    class       volScalarField;
    object      k;
}

// * * * * * * * * * * * * * * * * * * * * * * * * * * * * * * * * * * * * * //

#include        "include/initialConditions"

dimensions      [0 2 -2 0 0 0 0];

internalField   uniform $turbulentKE;

boundaryField
{
    classroom
    {
        type            kqRWallFunction;
        value           uniform 0.0;
    }

    outlet
    {
        type            inletOutlet;
        inletValue      uniform $turbulentKE;
        value           $internalField;
    }

    inlet
    {
        type            atmBoundaryLayerInletK;
        #include        "include/ABLConditions"
    }


    frontAndBack
    {
        type            slip;
    }

    lowerWall
    {
        type            zeroGradient;
    }

    upperWall
    {
        type            slip;
    }
}


// ************************************************************************* //
