/*--------------------------------*- C++ -*----------------------------------*\
  =========                 |
  \\      /  F ield         | OpenFOAM: The Open Source CFD Toolbox
   \\    /   O peration     | Website:  https://openfoam.org
    \\  /    A nd           | Version:  9
     \\/     M anipulation  |
\*---------------------------------------------------------------------------*/
FoamFile
{
    format          ascii;
    class           dictionary;
    object          blockMeshDict;
}
// * * * * * * * * * * * * * * * * * * * * * * * * * * * * * * * * * * * * * //

convertToMeters 1;

vertices
(
    ( -7.5  -6.5   0)
    ( 7.5  -6.5   0)
    ( 7.5  6.5   0)
    ( -7.5  6.5   0)
    ( -7.5  -6.5   6)
    ( 7.5  -6.5   6)
    ( 7.5  6.5   6)
    ( -7.5  6.5   6)

);

blocks
(
    hex (0 1 2 3 4 5 6 7) (150 130 60) simpleGrading (1 1 1)
);

edges
(
);

boundary
(
    inlet
    {
        type patch;
        faces
        (
            (1 5 4 0)
        );
    }
    frontAndBack
    {
        type patch;
        faces
        (
            (2 6 5 1)
            (0 4 7 3)
        );
    }
    outlet
    {
        type patch;
        faces
        (
            (3 7 6 2)
        );
    }
    lowerWall
    {
        type wall;
        faces
        (
            (0 3 2 1)
        );
    }
    upperWall
    {
        type patch;
        faces
        (
            (4 5 6 7)
        );
    }
);

mergePatchPairs
(
);


// ************************************************************************* //
